test/data/three_phase/two_transformers/result.csv
# result.csv run at 2000-01-01 00:00:00 EST on 14 powerflow objects (not all are nodes)
node_name,voltA_real,voltA_imag,voltB_real,voltB_imag,voltC_real,voltC_imag
node1,7200.000000,0.000000,-3600.000000,-6235.382907,-3600.000000,6235.382907
node2,2274.258070,-123.228147,-1241.297185,-1912.673556,-1029.335407,2028.738078
node3,2070.748189,-244.244753,-1300.253660,-1701.342391,-797.465641,1907.264129
load1,5824.574052,-1101.535349,-4018.543039,-4597.977395,-1876.011796,5563.162167
